
  -OEChem-06112015393D

 54 56  0     0  0  0  0  0  0999 V2000
    8.2522    2.8753    1.4068 C   0  0  0  0  0  0  0  0  0  0  0  0
   -2.2791   -3.7057   -3.7568 C   0  0  0  0  0  0  0  0  0  0  0  0
    7.1996    3.6535    1.8885 C   0  0  0  0  0  0  0  0  0  0  0  0
    8.1131    2.1810    0.2050 C   0  0  0  0  0  0  0  0  0  0  0  0
   -2.3708   -3.3430   -2.4131 C   0  0  0  0  0  0  0  0  0  0  0  0
   -1.1215   -3.4175   -4.4796 C   0  0  0  0  0  0  0  0  0  0  0  0
    6.0079    3.7375    1.1684 C   0  0  0  0  0  0  0  0  0  0  0  0
    6.9215    2.2649   -0.5151 C   0  0  0  0  0  0  0  0  0  0  0  0
   -1.3049   -2.6919   -1.7922 C   0  0  0  0  0  0  0  0  0  0  0  0
   -0.0556   -2.7664   -3.8587 C   0  0  0  0  0  0  0  0  0  0  0  0
    5.8688    3.0431   -0.0334 C   0  0  0  0  0  0  0  0  0  0  0  0
   -0.1472   -2.4036   -2.5150 C   0  0  0  0  0  0  0  0  0  0  0  0
    1.9714   -2.5118   -1.2300 C   0  0  0  0  0  0  0  0  0  0  0  0
    2.2494    0.2160   -2.6352 C   0  0  0  0  0  0  0  0  0  0  0  0
    0.9436    0.2936   -0.4766 C   0  0  0  0  0  0  0  0  0  0  0  0
    2.3493    1.7348   -2.6204 C   0  0  0  0  0  0  0  0  0  0  0  0
    1.0519    1.8120   -0.4747 C   0  0  0  0  0  0  0  0  0  0  0  0
    1.0059   -0.2794   -1.8940 C   0  0  0  0  0  0  0  0  0  0  0  0
    2.8663   -4.8130   -0.6418 C   0  0  0  0  0  0  0  0  0  0  0  0
    4.5864    3.1328   -0.8088 C   0  0  0  0  0  0  0  0  0  0  0  0
    1.7771   -4.0208   -1.3490 C   0  0  0  0  0  0  0  0  0  0  0  0
    3.5623    2.0669   -0.4324 C   0  0  0  0  0  0  0  0  0  0  0  0
    0.9684   -1.7221   -1.8648 N   0  0  0  0  0  0  0  0  0  0  0  0
    2.2890    2.2657   -1.2095 N   0  3  0  0  0  0  0  0  0  0  0  0
    2.9661   -2.0771   -0.6440 O   0  0  0  0  0  0  0  0  0  0  0  0
    9.1805    2.8111    1.9670 H   0  0  0  0  0  0  0  0  0  0  0  0
   -3.1086   -4.2135   -4.2404 H   0  0  0  0  0  0  0  0  0  0  0  0
    7.3081    4.1951    2.8237 H   0  0  0  0  0  0  0  0  0  0  0  0
    8.9328    1.5759   -0.1708 H   0  0  0  0  0  0  0  0  0  0  0  0
   -3.2716   -3.5680   -1.8498 H   0  0  0  0  0  0  0  0  0  0  0  0
   -1.0500   -3.7010   -5.5257 H   0  0  0  0  0  0  0  0  0  0  0  0
    5.1930    4.3461    1.5515 H   0  0  0  0  0  0  0  0  0  0  0  0
    6.8221    1.7204   -1.4504 H   0  0  0  0  0  0  0  0  0  0  0  0
   -1.3877   -2.4141   -0.7444 H   0  0  0  0  0  0  0  0  0  0  0  0
    0.8417   -2.5469   -4.4321 H   0  0  0  0  0  0  0  0  0  0  0  0
    2.2020   -0.1273   -3.6724 H   0  0  0  0  0  0  0  0  0  0  0  0
    3.1526   -0.2192   -2.2021 H   0  0  0  0  0  0  0  0  0  0  0  0
    1.7342   -0.1355    0.1448 H   0  0  0  0  0  0  0  0  0  0  0  0
   -0.0063    0.0019   -0.0176 H   0  0  0  0  0  0  0  0  0  0  0  0
    3.2908    2.0905   -3.0695 H   0  0  0  0  0  0  0  0  0  0  0  0
    1.5082    2.1804   -3.1744 H   0  0  0  0  0  0  0  0  0  0  0  0
    0.1851    2.2583   -0.9873 H   0  0  0  0  0  0  0  0  0  0  0  0
    1.1017    2.2230    0.5474 H   0  0  0  0  0  0  0  0  0  0  0  0
    0.1101    0.0292   -2.4467 H   0  0  0  0  0  0  0  0  0  0  0  0
    2.8915   -4.5586    0.4223 H   0  0  0  0  0  0  0  0  0  0  0  0
    3.8511   -4.5958   -1.0685 H   0  0  0  0  0  0  0  0  0  0  0  0
    2.6905   -5.8902   -0.7312 H   0  0  0  0  0  0  0  0  0  0  0  0
    4.1392    4.1199   -0.6310 H   0  0  0  0  0  0  0  0  0  0  0  0
    4.7890    3.0906   -1.8870 H   0  0  0  0  0  0  0  0  0  0  0  0
    1.7777   -4.2971   -2.4088 H   0  0  0  0  0  0  0  0  0  0  0  0
    0.8119   -4.2865   -0.9049 H   0  0  0  0  0  0  0  0  0  0  0  0
    3.2923    2.1443    0.6250 H   0  0  0  0  0  0  0  0  0  0  0  0
    3.9093    1.0510   -0.6443 H   0  0  0  0  0  0  0  0  0  0  0  0
    2.1884    3.3180   -1.3080 H   0  0  0  0  0  0  0  0  0  0  0  0
  1  3  2  0  0  0  0
  1  4  1  0  0  0  0
  2  5  2  0  0  0  0
  2  6  1  0  0  0  0
  3  7  1  0  0  0  0
  4  8  2  0  0  0  0
  5  9  1  0  0  0  0
  6 10  2  0  0  0  0
  7 11  2  0  0  0  0
  8 11  1  0  0  0  0
  9 12  2  0  0  0  0
 10 12  1  0  0  0  0
 11 20  1  0  0  0  0
 12 23  1  0  0  0  0
 13 21  1  0  0  0  0
 13 23  1  0  0  0  0
 13 25  2  0  0  0  0
 14 16  1  0  0  0  0
 14 18  1  0  0  0  0
 15 17  1  0  0  0  0
 15 18  1  0  0  0  0
 16 24  1  0  0  0  0
 17 24  1  0  0  0  0
 18 23  1  0  0  0  0
 19 21  1  0  0  0  0
 20 22  1  0  0  0  0
 22 24  1  0  0  0  0
  1 26  1  0  0  0  0
  2 27  1  0  0  0  0
  3 28  1  0  0  0  0
  4 29  1  0  0  0  0
  5 30  1  0  0  0  0
  6 31  1  0  0  0  0
  7 32  1  0  0  0  0
  8 33  1  0  0  0  0
  9 34  1  0  0  0  0
 10 35  1  0  0  0  0
 14 36  1  0  0  0  0
 14 37  1  0  0  0  0
 15 38  1  0  0  0  0
 15 39  1  0  0  0  0
 16 40  1  0  0  0  0
 16 41  1  0  0  0  0
 17 42  1  0  0  0  0
 17 43  1  0  0  0  0
 18 44  1  0  0  0  0
 19 45  1  0  0  0  0
 19 46  1  0  0  0  0
 19 47  1  0  0  0  0
 20 48  1  0  0  0  0
 20 49  1  0  0  0  0
 21 50  1  0  0  0  0
 21 51  1  0  0  0  0
 22 52  1  0  0  0  0
 22 53  1  0  0  0  0
 24 54  1  0  0  0  0
M  CHG  1  24   1
M  END
> <OE_AM1_SCF_ENERGY>
151.8860

$$$$
