%Chk=G3.chk
%nprocshared=8
%mem=1GB
# B3LYP/6-31G** opt=Modredundant

G3

1  1
C 11.946100 40.439301 33.035599
C 12.003200 41.707699 32.452702
C 11.216000 37.057800 30.733000
C 11.569300 40.727798 30.301300
C 11.414500 37.006401 32.097801
C 11.511900 39.452202 30.887899
C 11.266700 38.303299 30.123800
C 11.702300 39.297699 32.277100
C 11.814500 41.852501 31.083799
C 7.349300 35.178799 27.716700
C 6.843700 36.072601 26.860001
C 8.414800 39.530800 26.206499
C 9.617400 37.424702 26.723600
C 8.570900 39.972801 27.660999
C 7.238500 38.013699 28.408001
C 7.087500 37.550201 26.947100
C 8.318600 37.996201 26.118700
C 9.707500 37.773300 28.216801
C 12.123900 44.192200 31.377100
C 11.049800 38.360600 28.630600
N 11.653800 38.090199 32.870998
N 8.571700 38.737801 28.542601
O 12.092200 37.622200 27.996500
O 11.868900 43.085602 30.512600
H 12.096700 40.353100 34.110199
H 12.196200 42.576199 33.076500
H 11.028400 36.152000 30.167000
H 11.424500 40.862701 29.231701
H 11.385600 36.060398 32.628601
H 7.135000 34.122299 27.598400
H 7.981200 35.480801 28.544800
H 6.215800 35.720901 26.046101
H 7.520900 39.994499 25.772100
H 9.265600 39.894100 25.617300
H 9.652500 36.335602 26.601101
H 10.483400 37.816101 26.174900
H 9.502500 40.517799 27.835800
H 7.738100 40.605099 27.987000
H 6.457900 38.729401 28.688999
H 7.239500 37.199402 29.141199
H 6.193300 38.030998 26.528799
H 8.222300 37.688301 25.071199
H 9.524700 36.878399 28.824499
H 12.141200 45.115501 30.792999
H 13.083400 44.048901 31.880501
H 11.328300 44.250801 32.123600
H 11.112100 39.391602 28.262800
H 8.668200 39.039501 29.521700
H 12.027900 36.713902 28.329399

 * * * * F
