
  -OEChem-06112015393D

 27 27  0     1  0  0  0  0  0999 V2000
    2.7486   -1.6866   -6.1812 C   0  0  0  0  0  0  0  0  0  0  0  0
    2.0232   -0.5231   -5.9252 C   0  0  0  0  0  0  0  0  0  0  0  0
    2.8321   -2.6843   -5.2099 C   0  0  0  0  0  0  0  0  0  0  0  0
    1.3815   -0.3571   -4.6978 C   0  0  0  0  0  0  0  0  0  0  0  0
    2.1905   -2.5184   -3.9826 C   0  0  0  0  0  0  0  0  0  0  0  0
    1.4651   -1.3548   -3.7265 C   0  0  0  0  0  0  0  0  0  0  0  0
    2.8639   -1.3418   -0.9883 C   0  0  0  0  0  0  0  0  0  0  0  0
   -0.3533    0.5468   -0.2639 C   0  0  0  0  0  0  0  0  0  0  0  0
    0.7743   -1.1765   -2.4040 C   0  0  0  0  0  0  0  0  0  0  0  0
    1.6450   -0.4981   -1.3382 C   0  0  1  0  0  0  0  0  0  0  0  0
    0.8490   -0.3075   -0.0910 N   0  3  0  0  0  0  0  0  0  0  0  0
    3.2470   -1.8163   -7.1374 H   0  0  0  0  0  0  0  0  0  0  0  0
    1.9571    0.2534   -6.6817 H   0  0  0  0  0  0  0  0  0  0  0  0
    3.3959   -3.5908   -5.4094 H   0  0  0  0  0  0  0  0  0  0  0  0
    0.8188    0.5529   -4.5070 H   0  0  0  0  0  0  0  0  0  0  0  0
    2.2612   -3.3009   -3.2318 H   0  0  0  0  0  0  0  0  0  0  0  0
    2.5673   -2.3474   -0.6707 H   0  0  0  0  0  0  0  0  0  0  0  0
    3.5409   -1.4440   -1.8435 H   0  0  0  0  0  0  0  0  0  0  0  0
    3.4250   -0.8854   -0.1661 H   0  0  0  0  0  0  0  0  0  0  0  0
   -0.9783    0.0916   -1.0343 H   0  0  0  0  0  0  0  0  0  0  0  0
   -0.8761    0.5857    0.6936 H   0  0  0  0  0  0  0  0  0  0  0  0
   -0.0166    1.5398   -0.5679 H   0  0  0  0  0  0  0  0  0  0  0  0
    0.4712   -2.1681   -2.0403 H   0  0  0  0  0  0  0  0  0  0  0  0
   -0.1607   -0.6159   -2.5387 H   0  0  0  0  0  0  0  0  0  0  0  0
    1.9611    0.5024   -1.6530 H   0  0  0  0  0  0  0  0  0  0  0  0
    1.4558    0.1005    0.6312 H   0  0  0  0  0  0  0  0  0  0  0  0
    0.5640   -1.2283    0.2654 H   0  0  0  0  0  0  0  0  0  0  0  0
  1  2  2  0  0  0  0
  1  3  1  0  0  0  0
  2  4  1  0  0  0  0
  3  5  2  0  0  0  0
  4  6  2  0  0  0  0
  5  6  1  0  0  0  0
  6  9  1  0  0  0  0
  7 10  1  0  0  0  0
  8 11  1  0  0  0  0
  9 10  1  0  0  0  0
 10 11  1  0  0  0  0
  1 12  1  0  0  0  0
  2 13  1  0  0  0  0
  3 14  1  0  0  0  0
  4 15  1  0  0  0  0
  5 16  1  0  0  0  0
  7 17  1  0  0  0  0
  7 18  1  0  0  0  0
  7 19  1  0  0  0  0
  8 20  1  0  0  0  0
  8 21  1  0  0  0  0
  8 22  1  0  0  0  0
  9 23  1  0  0  0  0
  9 24  1  0  0  0  0
 10 25  1  0  0  0  0
 11 26  1  0  0  0  0
 11 27  1  0  0  0  0
M  CHG  1  11   1
M  END
> <OE_AM1_SCF_ENERGY>
160.0540

$$$$
