
  -OEChem-06112015393D

 44 46  0     0  0  0  0  0  0999 V2000
   -4.2375   -6.5402   -2.8694 C   0  0  0  0  0  0  0  0  0  0  0  0
   -4.2183   -5.3839   -3.6492 C   0  0  0  0  0  0  0  0  0  0  0  0
   -3.1989   -6.7947   -1.9736 C   0  0  0  0  0  0  0  0  0  0  0  0
   -3.1606   -4.4820   -3.5332 C   0  0  0  0  0  0  0  0  0  0  0  0
   -2.1412   -5.8928   -1.8577 C   0  0  0  0  0  0  0  0  0  0  0  0
   -2.1220   -4.7364   -2.6375 C   0  0  0  0  0  0  0  0  0  0  0  0
    1.2969   -4.5196   -4.3446 C   0  0  0  0  0  0  0  0  0  0  0  0
    0.0620   -3.7988   -4.8749 C   0  0  0  0  0  0  0  0  0  0  0  0
    0.9959   -5.3017   -3.0705 C   0  0  0  0  0  0  0  0  0  0  0  0
   -2.9317   -1.3421    0.5180 C   0  0  0  0  0  0  0  0  0  0  0  0
   -2.7683   -0.7888   -0.8936 C   0  0  0  0  0  0  0  0  0  0  0  0
   -1.7473   -2.2200    0.9076 C   0  0  0  0  0  0  0  0  0  0  0  0
   -0.6063   -2.9417   -3.7942 C   0  0  0  0  0  0  0  0  0  0  0  0
    0.3575   -4.4047   -2.0082 C   0  0  0  0  0  0  0  0  0  0  0  0
   -2.5203   -1.8962   -1.9078 C   0  0  0  0  0  0  0  0  0  0  0  0
   -1.5026   -3.3220   -0.1131 C   0  0  0  0  0  0  0  0  0  0  0  0
   -0.9560   -3.7430   -2.5094 C   0  0  0  0  0  0  0  0  0  0  0  0
   -1.3202   -2.7080   -1.4809 N   0  3  0  0  0  0  0  0  0  0  0  0
   -5.0618   -7.2418   -2.9589 H   0  0  0  0  0  0  0  0  0  0  0  0
   -5.0274   -5.1850   -4.3459 H   0  0  0  0  0  0  0  0  0  0  0  0
   -3.2141   -7.6944   -1.3656 H   0  0  0  0  0  0  0  0  0  0  0  0
   -3.1540   -3.5836   -4.1450 H   0  0  0  0  0  0  0  0  0  0  0  0
   -1.3364   -6.0993   -1.1572 H   0  0  0  0  0  0  0  0  0  0  0  0
    1.6754   -5.2069   -5.1125 H   0  0  0  0  0  0  0  0  0  0  0  0
    2.0941   -3.7918   -4.1512 H   0  0  0  0  0  0  0  0  0  0  0  0
    0.3381   -3.1727   -5.7324 H   0  0  0  0  0  0  0  0  0  0  0  0
   -0.6581   -4.5372   -5.2491 H   0  0  0  0  0  0  0  0  0  0  0  0
    0.3199   -6.1279   -3.3025 H   0  0  0  0  0  0  0  0  0  0  0  0
    1.9174   -5.7424   -2.6832 H   0  0  0  0  0  0  0  0  0  0  0  0
   -3.0322   -0.5164    1.2313 H   0  0  0  0  0  0  0  0  0  0  0  0
   -3.8562   -1.9298    0.5751 H   0  0  0  0  0  0  0  0  0  0  0  0
   -3.6687   -0.2306   -1.1742 H   0  0  0  0  0  0  0  0  0  0  0  0
   -1.9345   -0.0761   -0.9154 H   0  0  0  0  0  0  0  0  0  0  0  0
   -0.8465   -1.6011    1.0041 H   0  0  0  0  0  0  0  0  0  0  0  0
   -1.9308   -2.6667    1.8913 H   0  0  0  0  0  0  0  0  0  0  0  0
    0.0394   -2.0971   -3.5496 H   0  0  0  0  0  0  0  0  0  0  0  0
   -1.5229   -2.5200   -4.2136 H   0  0  0  0  0  0  0  0  0  0  0  0
    0.1377   -5.0165   -1.1335 H   0  0  0  0  0  0  0  0  0  0  0  0
    1.0697   -3.6454   -1.6929 H   0  0  0  0  0  0  0  0  0  0  0  0
   -3.3736   -2.5782   -1.9834 H   0  0  0  0  0  0  0  0  0  0  0  0
   -2.2978   -1.4741   -2.8924 H   0  0  0  0  0  0  0  0  0  0  0  0
   -0.5866   -3.8714    0.1250 H   0  0  0  0  0  0  0  0  0  0  0  0
   -2.3457   -4.0184   -0.1709 H   0  0  0  0  0  0  0  0  0  0  0  0
   -0.5234   -2.0567   -1.4152 H   0  0  0  0  0  0  0  0  0  0  0  0
  1  2  2  0  0  0  0
  1  3  1  0  0  0  0
  2  4  1  0  0  0  0
  3  5  2  0  0  0  0
  4  6  2  0  0  0  0
  5  6  1  0  0  0  0
  6 17  1  0  0  0  0
  7  8  1  0  0  0  0
  7  9  1  0  0  0  0
  8 13  1  0  0  0  0
  9 14  1  0  0  0  0
 10 11  1  0  0  0  0
 10 12  1  0  0  0  0
 11 15  1  0  0  0  0
 12 16  1  0  0  0  0
 13 17  1  0  0  0  0
 14 17  1  0  0  0  0
 15 18  1  0  0  0  0
 16 18  1  0  0  0  0
 17 18  1  0  0  0  0
  1 19  1  0  0  0  0
  2 20  1  0  0  0  0
  3 21  1  0  0  0  0
  4 22  1  0  0  0  0
  5 23  1  0  0  0  0
  7 24  1  0  0  0  0
  7 25  1  0  0  0  0
  8 26  1  0  0  0  0
  8 27  1  0  0  0  0
  9 28  1  0  0  0  0
  9 29  1  0  0  0  0
 10 30  1  0  0  0  0
 10 31  1  0  0  0  0
 11 32  1  0  0  0  0
 11 33  1  0  0  0  0
 12 34  1  0  0  0  0
 12 35  1  0  0  0  0
 13 36  1  0  0  0  0
 13 37  1  0  0  0  0
 14 38  1  0  0  0  0
 14 39  1  0  0  0  0
 15 40  1  0  0  0  0
 15 41  1  0  0  0  0
 16 42  1  0  0  0  0
 16 43  1  0  0  0  0
 18 44  1  0  0  0  0
M  CHG  1  18   1
M  END
> <OE_AM1_SCF_ENERGY>
140.3174

$$$$
