
  -OEChem-06112015403D

 41 45  0     1  0  0  0  0  0999 V2000
   -0.0891   -1.0562   -0.2399 C   0  0  0  0  0  0  0  0  0  0  0  0
   -0.9186   -1.4547   -1.3105 C   0  0  0  0  0  0  0  0  0  0  0  0
    0.6277   -2.0074    0.4866 C   0  0  0  0  0  0  0  0  0  0  0  0
    0.4608   -3.3277    0.1164 C   0  0  0  0  0  0  0  0  0  0  0  0
   -0.2917   -3.7199   -0.9719 C   0  0  0  0  0  0  0  0  0  0  0  0
   -1.0167   -2.8000   -1.6941 C   0  0  0  0  0  0  0  0  0  0  0  0
    2.2238   -5.3745   -1.3760 C   0  0  0  0  0  0  0  0  0  0  0  0
    1.6321   -1.6753    1.5584 C   0  0  0  0  0  0  0  0  0  0  0  0
    3.5684   -5.1208   -0.7342 C   0  0  0  0  0  0  0  0  0  0  0  0
    3.4996   -3.9015    0.1769 C   0  0  0  0  0  0  0  0  0  0  0  0
    0.2074   -4.9869    1.9395 C   0  0  0  0  0  0  0  0  0  0  0  0
    0.1016   -3.9630    3.0727 C   0  0  0  0  0  0  0  0  0  0  0  0
    1.0085   -5.4519   -0.4495 C   0  0  1  0  0  0  0  0  0  0  0  0
    2.4781   -4.1344    1.2967 C   0  0  1  0  0  0  0  0  0  0  0  0
    2.2950   -2.9133    2.2372 C   0  0  2  0  0  0  0  0  0  0  0  0
    1.0902   -4.5099    0.7639 C   0  0  1  0  0  0  0  0  0  0  0  0
    1.4051   -2.4578    4.5868 C   0  0  0  0  0  0  0  0  0  0  0  0
    1.4650   -3.4199    3.4304 N   0  3  1  0  0  0  0  0  0  0  0  0
    2.1291   -5.5773   -2.5870 O   0  0  0  0  0  0  0  0  0  0  0  0
   -0.1634   -5.0641   -1.2321 O   0  0  0  0  0  0  0  0  0  0  0  0
   -1.7742   -3.1664   -2.7565 O   0  0  0  0  0  0  0  0  0  0  0  0
   -0.0004    0.0001    0.0004 H   0  0  0  0  0  0  0  0  0  0  0  0
   -1.4657   -0.6947   -1.8637 H   0  0  0  0  0  0  0  0  0  0  0  0
    2.4358   -1.1051    1.0733 H   0  0  0  0  0  0  0  0  0  0  0  0
    1.1817   -1.0024    2.2938 H   0  0  0  0  0  0  0  0  0  0  0  0
    3.8644   -6.0186   -0.1813 H   0  0  0  0  0  0  0  0  0  0  0  0
    4.3087   -4.9489   -1.5229 H   0  0  0  0  0  0  0  0  0  0  0  0
    4.4878   -3.7190    0.6152 H   0  0  0  0  0  0  0  0  0  0  0  0
    3.2483   -3.0146   -0.4159 H   0  0  0  0  0  0  0  0  0  0  0  0
    0.6266   -5.9185    2.3427 H   0  0  0  0  0  0  0  0  0  0  0  0
   -0.8073   -5.2320    1.5996 H   0  0  0  0  0  0  0  0  0  0  0  0
   -0.5389   -3.1157    2.8070 H   0  0  0  0  0  0  0  0  0  0  0  0
   -0.3062   -4.4352    3.9732 H   0  0  0  0  0  0  0  0  0  0  0  0
    0.8969   -6.4992   -0.1454 H   0  0  0  0  0  0  0  0  0  0  0  0
    2.8689   -4.9760    1.8882 H   0  0  0  0  0  0  0  0  0  0  0  0
    3.2621   -2.6233    2.6654 H   0  0  0  0  0  0  0  0  0  0  0  0
    0.8531   -1.5752    4.2587 H   0  0  0  0  0  0  0  0  0  0  0  0
    0.8926   -2.9575    5.4111 H   0  0  0  0  0  0  0  0  0  0  0  0
    2.4301   -2.2002    4.8605 H   0  0  0  0  0  0  0  0  0  0  0  0
    1.9922   -4.2244    3.7968 H   0  0  0  0  0  0  0  0  0  0  0  0
   -2.1953   -2.3886   -3.1610 H   0  0  0  0  0  0  0  0  0  0  0  0
  1  2  1  0  0  0  0
  1  3  2  0  0  0  0
  2  6  2  0  0  0  0
  3  4  1  0  0  0  0
  3  8  1  0  0  0  0
  4  5  2  0  0  0  0
  4 16  1  1  0  0  0
  5  6  1  0  0  0  0
  5 20  1  0  0  0  0
  6 21  1  0  0  0  0
  7  9  1  0  0  0  0
  7 13  1  0  0  0  0
  7 19  2  0  0  0  0
  8 15  1  0  0  0  0
  9 10  1  0  0  0  0
 10 14  1  0  0  0  0
 11 12  1  0  0  0  0
 11 16  1  1  0  0  0
 12 18  1  0  0  0  0
 13 16  1  6  0  0  0
 13 20  1  0  0  0  0
 14 15  1  0  0  0  0
 14 16  1  6  0  0  0
 15 18  1  0  0  0  0
 17 18  1  0  0  0  0
  1 22  1  0  0  0  0
  2 23  1  0  0  0  0
  8 24  1  0  0  0  0
  8 25  1  0  0  0  0
  9 26  1  0  0  0  0
  9 27  1  0  0  0  0
 10 28  1  0  0  0  0
 10 29  1  0  0  0  0
 11 30  1  0  0  0  0
 11 31  1  0  0  0  0
 12 32  1  0  0  0  0
 12 33  1  0  0  0  0
 13 34  1  1  0  0  0
 14 35  1  1  0  0  0
 15 36  1  6  0  0  0
 17 37  1  0  0  0  0
 17 38  1  0  0  0  0
 17 39  1  0  0  0  0
 18 40  1  0  0  0  0
 21 41  1  0  0  0  0
M  CHG  1  18   1
M  END
> <OE_AM1_SCF_ENERGY>
82.9535

$$$$
