%Chk=G7.chk
%nprocshared=8
%mem=1GB
# B3LYP/6-31G** opt=Modredundant

G7

1  1
C 8.850000 38.082500 30.714199
C 7.840300 38.778099 29.804501
C 9.058300 36.606201 30.391899
C 7.939500 38.498299 28.304600
C 10.437800 36.264801 29.832899
C 9.304100 38.762699 27.670000
C 11.072600 37.223598 28.822300
C 10.303900 37.602200 27.555500
N 9.679300 36.406502 26.937000
H 9.804500 38.613602 30.741199
H 8.453700 38.126400 31.735300
H 6.806500 38.607201 30.157101
H 7.973800 39.871498 29.925501
H 8.928700 36.043999 31.316500
H 8.287400 36.266800 29.702499
H 7.630100 37.472500 28.115700
H 7.216800 39.138199 27.796900
H 11.144700 36.041199 30.667101
H 10.331100 35.279499 29.321800
H 9.117100 39.141998 26.651699
H 9.788700 39.606899 28.181101
H 11.277600 38.182098 29.364901
H 12.110600 36.881699 28.574100
H 11.070300 37.937401 26.801701
H 8.860600 36.112999 27.474001
H 10.344300 35.630501 26.910000
H 9.382800 36.612801 25.980700

 * * * * F
